psse_raw/psse_controlled_tap_test_v33.raw
 0,    100.00, 33, 0, 0, 60.00
PSSE controlled tap transformer test
controlling LTC on winding 1: COD1=1, CONT1=2
    1,'BUS 1       ', 138.0000,3,   1,   1,   1,1.05000000,   0.000000, 1.10000, 0.90000, 1.10000, 0.90000
    2,'BUS 2       ', 138.0000,1,   1,   1,   1,1.00000000,   0.000000, 1.10000, 0.90000, 1.10000, 0.90000
0 / END OF BUS DATA, BEGIN LOAD DATA
    2,'1 ',1,   1,   1,    50.000,    20.000,     0.000,     0.000,     0.000,     0.000,   1,1
0 / END OF LOAD DATA, BEGIN FIXED SHUNT DATA
0 / END OF FIXED SHUNT DATA, BEGIN GENERATOR DATA
    1,'1 ',     0.000,     0.000,   100.000,  -100.000,1.05000,    0,   100.000,   0.00000,   1.00000,   0.00000,   0.00000,1.00000,1,  100.0,   300.000,     0.000,   1,1.0000,   0,1.0000,   0,1.0000,   0,1.0000,0, 1.0000
0 / END OF GENERATOR DATA, BEGIN BRANCH DATA
0 / END OF BRANCH DATA, BEGIN TRANSFORMER DATA
     1,     2,    0,'1 ',1,1,1,0.00000E0,0.00000E0,2,'CTRL TAP    ',1,   1,1.0000,   0,1.0000,   0,1.0000,   0,1.0000,'            '
1.00000E-2,1.00000E-1, 100.00
1.000000,138.000,   0.000,   0.00,   0.00,   0.00,1,     2,1.100000,0.900000,1.040000,1.020000,17, 0, 0.00000, 0.00000,  0.000
1.000000,138.000
0 / END OF TRANSFORMER DATA, BEGIN AREA DATA
   1,    0,     0.000,     1.000,'1           '
0 / END OF AREA DATA, BEGIN TWO-TERMINAL DC DATA
0 / END OF TWO-TERMINAL DC DATA, BEGIN VOLTAGE SOURCE CONVERTER DATA
0 / END OF VOLTAGE SOURCE CONVERTER DATA, BEGIN IMPEDANCE CORRECTION DATA
0 / END OF IMPEDANCE CORRECTION DATA, BEGIN MULTI-TERMINAL DC DATA
0 / END OF MULTI-TERMINAL DC DATA, BEGIN MULTI-SECTION LINE DATA
0 / END OF MULTI-SECTION LINE DATA, BEGIN ZONE DATA
   1,'1       '
0 / END OF ZONE DATA, BEGIN INTER-AREA TRANSFER DATA
0 / END OF INTER-AREA TRANSFER DATA, BEGIN OWNER DATA
    1,'1'
0 / END OF OWNER DATA, BEGIN FACTS CONTROL DEVICE DATA
0 / END OF FACTS CONTROL DEVICE DATA, BEGIN SWITCHED SHUNT DATA
0 /END OF SWITCHED SHUNT DATA, BEGIN GNE DEVICE DATA
0 /END OF GNE DEVICE DATA
Q
